# gdb_20004
# Created by GaussView 6.0.16
#

#
#

@<TRIPOS>MOLECULE
Molecule Name
17 18
SMALL
NO_CHARGES


@<TRIPOS>ATOM
1 O1    -0.0503    -0.0205    -0.5657 O
2 C2    -0.0317     1.0934    -0.1020 C
3 C3     1.2117     1.8838     0.0794 C
4 C4     1.1429     3.3733    -0.1471 C
5 N5     1.3702     2.8585     1.1763 N
6 C6     0.3416     3.0242     2.1730 C
7 C7     0.5223     2.2816     3.4669 C
8 C8     0.7398     3.7751     3.4159 C
9 H9    -0.9702     1.6026     0.2092 H
10 H10     2.1182     1.3464    -0.1852 H
11 H11     1.9786     3.8659    -0.6367 H
12 H12     0.1631     3.7941    -0.3755 H
13 H13    -0.6786     3.1762     1.8208 H
14 H14    -0.3608     1.8970     3.9641 H
15 H15     1.4018     1.6536     3.5484 H
16 H16     1.7626     4.1302     3.4592 H
17 H17     0.0054     4.4258     3.8770 H
@<TRIPOS>BOND
1 1 2 2
2 2 3 1
3 2 9 1
4 3 10 1
5 3 4 1
6 3 5 1
7 4 11 1
8 4 12 1
9 4 5 1
10 5 6 1
11 6 13 1
12 6 8 1
13 6 7 1
14 7 8 1
15 7 15 1
16 7 14 1
17 8 16 1
18 8 17 1
